sim-outorder: SimpleScalar/Alpha Tool Set version 3.0 of August, 2003.
Copyright (c) 1994-2003 by Todd M. Austin, Ph.D. and SimpleScalar, LLC.
All Rights Reserved. This version of SimpleScalar is licensed for academic
non-commercial use.  No portion of this work may be used by any commercial
entity, or for any commercial purpose, without the prior written permission
of SimpleScalar, LLC (info@simplescalar.com).

warning: section `.comment' ignored...
sim: command line: ./sim-outorder -config processor_3.cfg ../benchmarks/go.alpha 50 9 ../benchmarks/2stone9.in 

sim: simulation started @ Fri Apr 21 09:28:32 2017, options follow:

sim-outorder: This simulator implements a very detailed out-of-order issue
superscalar processor with a two-level memory system and speculative
execution support.  This simulator is a performance simulator, tracking the
latency of all pipeline operations.

# -config                     # load configuration from a file
# -dumpconfig                 # dump configuration to a file
# -h                    false # print help message    
# -v                    false # verbose operation     
# -d                    false # enable debug message  
# -i                    false # start in Dlite debugger
-seed                       1 # random number generator seed (0 for timer seed)
# -q                    false # initialize and terminate immediately
# -chkpt               <null> # restore EIO trace execution from <fname>
# -redir:sim           <null> # redirect simulator output to file (non-interactive only)
# -redir:prog          <null> # redirect simulated program output to file
-nice                       0 # simulator scheduling priority
-max:inst                   0 # maximum number of inst's to execute
-fastfwd                    0 # number of insts skipped before timing starts
# -ptrace              <null> # generate pipetrace, i.e., <fname|stdout|stderr> <range>
-fetch:ifqsize              4 # instruction fetch queue size (in insts)
-fetch:mplat                3 # extra branch mis-prediction latency
-fetch:speed                1 # speed of front-end of machine relative to execution core
-bpred                  bimod # branch predictor type {nottaken|taken|perfect|bimod|2lev|comb}
-bpred:bimod     2048 # bimodal predictor config (<table size>)
-bpred:2lev      1 1024 8 # 2-level predictor config (<l1size> <l2size> <hist_size> <xor>)
-bpred:comb      1024 # combining predictor config (<meta_table_size>)
-bpred:ras                  8 # return address stack size (0 for no return stack)
-bpred:btb       512 4 # BTB config (<num_sets> <associativity>)
# -bpred:spec_update       <null> # speculative predictors update in {ID|WB} (default non-spec)
-decode:width               4 # instruction decode B/W (insts/cycle)
-issue:width                4 # instruction issue B/W (insts/cycle)
-issue:inorder          false # run pipeline with in-order issue
-issue:wrongpath         true # issue instructions down wrong execution paths
-commit:width               4 # instruction commit B/W (insts/cycle)
-ruu:size                  16 # register update unit (RUU) size
-lsq:size                  16 # load/store queue (LSQ) size
-cache:dl1       dl1:512:32:2:l # l1 data cache config, i.e., {<config>|none}
-cache:dl1lat               2 # l1 data cache hit latency (in cycles)
-cache:dl2       dl2:4096:64:1:l # l2 data cache config, i.e., {<config>|none}
-cache:dl2lat               7 # l2 data cache hit latency (in cycles)
-cache:il1       il1:512:32:2:l # l1 inst cache config, i.e., {<config>|dl1|dl2|none}
-cache:il1lat               2 # l1 instruction cache hit latency (in cycles)
-cache:il2       il2:4096:64:1:l # l2 instruction cache config, i.e., {<config>|dl2|none}
-cache:il2lat               7 # l2 instruction cache hit latency (in cycles)
-cache:flush            false # flush caches on system calls
-cache:icompress        false # convert 64-bit inst addresses to 32-bit inst equivalents
-mem:lat         18 2 # memory access latency (<first_chunk> <inter_chunk>)
-mem:width                  8 # memory access bus width (in bytes)
-tlb:itlb        itlb:16:4096:4:l # instruction TLB config, i.e., {<config>|none}
-tlb:dtlb        dtlb:32:4096:4:l # data TLB config, i.e., {<config>|none}
-tlb:lat                   30 # inst/data TLB miss latency (in cycles)
-res:ialu                   2 # total number of integer ALU's available
-res:imult                  2 # total number of integer multiplier/dividers available
-res:memport                2 # total number of memory system ports available (to CPU)
-res:fpalu                  1 # total number of floating point ALU's available
-res:fpmult                 1 # total number of floating point multiplier/dividers available
# -pcstat              <null> # profile stat(s) against text addr's (mult uses ok)
-bugcompat              false # operate in backward-compatible bugs mode (for testing only)

  Pipetrace range arguments are formatted as follows:

    {{@|#}<start>}:{{@|#|+}<end>}

  Both ends of the range are optional, if neither are specified, the entire
  execution is traced.  Ranges that start with a `@' designate an address
  range to be traced, those that start with an `#' designate a cycle count
  range.  All other range values represent an instruction count range.  The
  second argument, if specified with a `+', indicates a value relative
  to the first argument, e.g., 1000:+100 == 1000:1100.  Program symbols may
  be used in all contexts.

    Examples:   -ptrace FOO.trc #0:#1000
                -ptrace BAR.trc @2000:
                -ptrace BLAH.trc :1500
                -ptrace UXXE.trc :
                -ptrace FOOBAR.trc @main:+278

  Branch predictor configuration examples for 2-level predictor:
    Configurations:   N, M, W, X
      N   # entries in first level (# of shift register(s))
      W   width of shift register(s)
      M   # entries in 2nd level (# of counters, or other FSM)
      X   (yes-1/no-0) xor history and address for 2nd level index
    Sample predictors:
      GAg     : 1, W, 2^W, 0
      GAp     : 1, W, M (M > 2^W), 0
      PAg     : N, W, 2^W, 0
      PAp     : N, W, M (M == 2^(N+W)), 0
      gshare  : 1, W, 2^W, 1
  Predictor `comb' combines a bimodal and a 2-level predictor.

  The cache config parameter <config> has the following format:

    <name>:<nsets>:<bsize>:<assoc>:<repl>

    <name>   - name of the cache being defined
    <nsets>  - number of sets in the cache
    <bsize>  - block size of the cache
    <assoc>  - associativity of the cache
    <repl>   - block replacement strategy, 'l'-LRU, 'f'-FIFO, 'r'-random

    Examples:   -cache:dl1 dl1:4096:32:1:l
                -dtlb dtlb:128:4096:32:r

  Cache levels can be unified by pointing a level of the instruction cache
  hierarchy at the data cache hiearchy using the "dl1" and "dl2" cache
  configuration arguments.  Most sensible combinations are supported, e.g.,

    A unified l2 cache (il2 is pointed at dl2):
      -cache:il1 il1:128:64:1:l -cache:il2 dl2
      -cache:dl1 dl1:256:32:1:l -cache:dl2 ul2:1024:64:2:l

    Or, a fully unified cache hierarchy (il1 pointed at dl1):
      -cache:il1 dl1
      -cache:dl1 ul1:256:32:1:l -cache:dl2 ul2:1024:64:2:l



sim: ** starting performance simulation **
Initial position from ../benchmarks/2stone9.in
  1 B C3 
  2 W pass
  3 B G7 
  4 W D7 
  5 B G4 
  6 W C5 
  7 B B4 
  8 W B5 
  9 B E4 
 10 W F8 
 11 B G8 
 12 W F6 
 13 B G6 
 14 W F7 
 15 B F9 
 16 W E9 
 17 B G9 
 18 W E8 
 19 B A5 
 20 W A6 
 21 B A4 
 22 W C6 
 23 B F5 
 24 W G3 
 25 B E6 
 26 W C4 
 27 B D4 
 28 W H4 
 29 B F3 
 30 W B3 
 31 B C2 
 32 W H5 
 33 B G2 
 34 W H6 
 35 B H7 
 36 W D5 
 37 B H3 
 38 W B2 
 39 B E5 
 40 W C1 
 41 B D6 
 42 W C7 
 43 B B7 
 44 W E1 
 45 B B1 
 46 W D1 
 47 B A3 
 48 W C9 
 49 B A2 
 50 W B8 
 51 B E7 
 52 W A7 
 53 B F2 
 54 W pass
 55 B pass
Game over
warning: partially supported sigprocmask() call...

sim: ** simulation statistics **
sim_num_insn              545812328 # total number of instructions committed
sim_num_refs              211690553 # total number of loads and stores committed
sim_num_loads             167116184 # total number of loads committed
sim_num_stores         44574369.0000 # total number of stores committed
sim_num_branches           73904362 # total number of branches committed
sim_elapsed_time                482 # total simulation time in seconds
sim_inst_rate          1132390.7220 # simulation speed (in insts/sec)
sim_total_insn            721152753 # total number of instructions executed
sim_total_refs            280503622 # total number of loads and stores executed
sim_total_loads           224514466 # total number of loads executed
sim_total_stores       55989156.0000 # total number of stores executed
sim_total_branches         94830855 # total number of branches executed
sim_cycle                 434120189 # total simulation time in cycles
sim_IPC                      1.2573 # instructions per cycle
sim_CPI                      0.7954 # cycles per instruction
sim_exec_BW                  1.6612 # total instructions (mis-spec + committed) per cycle
sim_IPB                      7.3854 # instruction per branch
IFQ_count                1375084651 # cumulative IFQ occupancy
IFQ_fcount                318528746 # cumulative IFQ full count
ifq_occupancy                3.1675 # avg IFQ occupancy (insn's)
ifq_rate                     1.6612 # avg IFQ dispatch rate (insn/cycle)
ifq_latency                  1.9068 # avg IFQ occupant latency (cycle's)
ifq_full                     0.7337 # fraction of time (cycle's) IFQ was full
RUU_count                5235676089 # cumulative RUU occupancy
RUU_fcount                269068257 # cumulative RUU full count
ruu_occupancy               12.0604 # avg RUU occupancy (insn's)
ruu_rate                     1.6612 # avg RUU dispatch rate (insn/cycle)
ruu_latency                  7.2601 # avg RUU occupant latency (cycle's)
ruu_full                     0.6198 # fraction of time (cycle's) RUU was full
LSQ_count                2075845261 # cumulative LSQ occupancy
LSQ_fcount                      799 # cumulative LSQ full count
lsq_occupancy                4.7817 # avg LSQ occupancy (insn's)
lsq_rate                     1.6612 # avg LSQ dispatch rate (insn/cycle)
lsq_latency                  2.8785 # avg LSQ occupant latency (cycle's)
lsq_full                     0.0000 # fraction of time (cycle's) LSQ was full
sim_slip                 6913970894 # total number of slip cycles
avg_sim_slip                12.6673 # the average slip between issue and retirement
bpred_bimod.lookups       103544767 # total number of bpred lookups
bpred_bimod.updates        73904362 # total number of updates
bpred_bimod.addr_hits      57745260 # total number of address-predicted hits
bpred_bimod.dir_hits       58474169 # total number of direction-predicted hits (includes addr-hits)
bpred_bimod.misses         15430193 # total number of misses
bpred_bimod.jr_hits         5949937 # total number of address-predicted hits for JR's
bpred_bimod.jr_seen         6257531 # total number of JR's seen
bpred_bimod.jr_non_ras_hits.PP        64344 # total number of address-predicted hits for non-RAS JR's
bpred_bimod.jr_non_ras_seen.PP       117958 # total number of non-RAS JR's seen
bpred_bimod.bpred_addr_rate    0.7814 # branch address-prediction rate (i.e., addr-hits/updates)
bpred_bimod.bpred_dir_rate    0.7912 # branch direction-prediction rate (i.e., all-hits/updates)
bpred_bimod.bpred_jr_rate    0.9508 # JR address-prediction rate (i.e., JR addr-hits/JRs seen)
bpred_bimod.bpred_jr_non_ras_rate.PP    0.5455 # non-RAS JR addr-pred rate (ie, non-RAS JR hits/JRs seen)
bpred_bimod.retstack_pushes      8310398 # total number of address pushed onto ret-addr stack
bpred_bimod.retstack_pops      9122230 # total number of address popped off of ret-addr stack
bpred_bimod.used_ras.PP      6139573 # total number of RAS predictions used
bpred_bimod.ras_hits.PP      5885593 # total number of RAS hits
bpred_bimod.ras_rate.PP    0.9586 # RAS prediction rate (i.e., RAS hits/used RAS)
il1.accesses              781935931 # total number of accesses
il1.hits                  778552917 # total number of hits
il1.misses                  3383014 # total number of misses
il1.replacements            3381990 # total number of replacements
il1.writebacks                    0 # total number of writebacks
il1.invalidations                 0 # total number of invalidations
il1.miss_rate                0.0043 # miss rate (i.e., misses/ref)
il1.repl_rate                0.0043 # replacement rate (i.e., repls/ref)
il1.wb_rate                  0.0000 # writeback rate (i.e., wrbks/ref)
il1.inv_rate                 0.0000 # invalidation rate (i.e., invs/ref)
il2.accesses                3383014 # total number of accesses
il2.hits                    3375584 # total number of hits
il2.misses                     7430 # total number of misses
il2.replacements               3911 # total number of replacements
il2.writebacks                    0 # total number of writebacks
il2.invalidations                 0 # total number of invalidations
il2.miss_rate                0.0022 # miss rate (i.e., misses/ref)
il2.repl_rate                0.0012 # replacement rate (i.e., repls/ref)
il2.wb_rate                  0.0000 # writeback rate (i.e., wrbks/ref)
il2.inv_rate                 0.0000 # invalidation rate (i.e., invs/ref)
dl1.accesses              229633559 # total number of accesses
dl1.hits                  228819547 # total number of hits
dl1.misses                   814012 # total number of misses
dl1.replacements             812988 # total number of replacements
dl1.writebacks               362801 # total number of writebacks
dl1.invalidations                 0 # total number of invalidations
dl1.miss_rate                0.0035 # miss rate (i.e., misses/ref)
dl1.repl_rate                0.0035 # replacement rate (i.e., repls/ref)
dl1.wb_rate                  0.0016 # writeback rate (i.e., wrbks/ref)
dl1.inv_rate                 0.0000 # invalidation rate (i.e., invs/ref)
dl2.accesses                1176813 # total number of accesses
dl2.hits                    1119012 # total number of hits
dl2.misses                    57801 # total number of misses
dl2.replacements              53827 # total number of replacements
dl2.writebacks                19692 # total number of writebacks
dl2.invalidations                 0 # total number of invalidations
dl2.miss_rate                0.0491 # miss rate (i.e., misses/ref)
dl2.repl_rate                0.0457 # replacement rate (i.e., repls/ref)
dl2.wb_rate                  0.0167 # writeback rate (i.e., wrbks/ref)
dl2.inv_rate                 0.0000 # invalidation rate (i.e., invs/ref)
itlb.accesses             781935931 # total number of accesses
itlb.hits                 781934726 # total number of hits
itlb.misses                    1205 # total number of misses
itlb.replacements              1141 # total number of replacements
itlb.writebacks                   0 # total number of writebacks
itlb.invalidations                0 # total number of invalidations
itlb.miss_rate               0.0000 # miss rate (i.e., misses/ref)
itlb.repl_rate               0.0000 # replacement rate (i.e., repls/ref)
itlb.wb_rate                 0.0000 # writeback rate (i.e., wrbks/ref)
itlb.inv_rate                0.0000 # invalidation rate (i.e., invs/ref)
dtlb.accesses             232470290 # total number of accesses
dtlb.hits                 232469650 # total number of hits
dtlb.misses                     640 # total number of misses
dtlb.replacements               518 # total number of replacements
dtlb.writebacks                   0 # total number of writebacks
dtlb.invalidations                0 # total number of invalidations
dtlb.miss_rate               0.0000 # miss rate (i.e., misses/ref)
dtlb.repl_rate               0.0000 # replacement rate (i.e., repls/ref)
dtlb.wb_rate                 0.0000 # writeback rate (i.e., wrbks/ref)
dtlb.inv_rate                0.0000 # invalidation rate (i.e., invs/ref)
sim_invalid_addrs                 0 # total non-speculative bogus addresses seen (debug var)
ld_text_base           0x0120000000 # program text (code) segment base
ld_text_size                 376832 # program text (code) size in bytes
ld_data_base           0x0140000000 # program initialized data segment base
ld_data_size                 612032 # program init'ed `.data' and uninit'ed `.bss' size in bytes
ld_stack_base          0x011ff9b000 # program stack segment base (highest address in stack)
ld_stack_size                 16384 # program initial stack size
ld_prog_entry          0x0120007bb0 # program entry point (initial PC)
ld_environ_base        0x011ff97000 # program environment base address address
ld_target_big_endian              0 # target executable endian-ness, non-zero if big endian
mem.page_count                  126 # total number of pages allocated
mem.page_mem                  1008k # total size of memory pages allocated
mem.ptab_misses             1983191 # total first level page table misses
mem.ptab_accesses        3915643116 # total page table accesses
mem.ptab_miss_rate           0.0005 # first level page table miss rate

